Version 4
SHEET 1 880 680
WIRE 48 -16 -144 -16
WIRE 192 -16 48 -16
WIRE 528 -16 192 -16
WIRE 528 0 528 -16
WIRE -144 16 -144 -16
WIRE 480 16 384 16
WIRE 192 96 192 -16
WIRE 48 128 48 -16
WIRE 528 160 528 96
WIRE 128 208 128 144
WIRE 128 208 48 208
WIRE 192 208 192 192
WIRE 304 208 192 208
WIRE 384 208 384 16
WIRE 192 224 192 208
WIRE 128 272 128 208
WIRE 384 304 384 208
WIRE -336 336 -560 336
WIRE -64 336 -256 336
WIRE -16 336 -64 336
WIRE -16 368 -16 336
WIRE 0 368 -16 368
WIRE -560 384 -560 336
WIRE -64 384 -64 336
WIRE 48 464 48 384
WIRE 48 464 -64 464
WIRE 192 464 192 320
WIRE 192 464 48 464
WIRE 384 464 384 384
WIRE 384 464 192 464
WIRE 528 464 528 240
WIRE 528 464 384 464
WIRE 48 496 48 464
FLAG 48 496 0
FLAG -144 96 0
FLAG -560 464 0
SYMBOL npn 128 96 R0
SYMATTR InstName Q1
SYMATTR Value 2N3904
SYMBOL pnp 128 320 M180
SYMATTR InstName Q2
SYMATTR Value 2N3906
SYMBOL pmos 480 96 M180
SYMATTR InstName M1
SYMATTR Value FQB11P06
SYMBOL res 512 144 R0
SYMATTR InstName R1
SYMATTR Value 100
SYMBOL res 400 192 R90
WINDOW 0 0 56 VBottom 2
WINDOW 3 32 56 VTop 2
SYMATTR InstName R2
SYMATTR Value 1
SYMBOL res 32 112 R0
SYMATTR InstName R3
SYMATTR Value 309
SYMBOL res 32 192 R0
SYMATTR InstName R4
SYMATTR Value 309
SYMBOL res -240 320 R90
WINDOW 0 0 56 VBottom 2
WINDOW 3 32 56 VTop 2
SYMATTR InstName R7
SYMATTR Value 50
SYMBOL voltage -144 0 R0
WINDOW 123 0 0 Left 2
WINDOW 39 0 0 Left 2
SYMATTR InstName V1
SYMATTR Value 24
SYMBOL voltage -560 368 R0
WINDOW 123 0 0 Left 2
WINDOW 39 0 0 Left 2
SYMATTR InstName V2
SYMATTR Value PULSE(0 3.3 0 1n 1n 500n 1u)
SYMBOL nmos 0 288 R0
SYMATTR InstName M2
SYMATTR Value AON6242
SYMBOL res 368 288 R0
SYMATTR InstName R5
SYMATTR Value 47k
TEXT -944 488 Left 2 !.tran 0 25u 0 100n
