Version 4
SHEET 1 880 680
WIRE -400 32 -576 32
WIRE -176 32 -400 32
WIRE -48 32 -176 32
WIRE 320 32 48 32
WIRE -176 48 -176 32
WIRE 320 48 320 32
WIRE -576 64 -576 32
WIRE -400 64 -400 32
WIRE -240 96 -256 96
WIRE -400 160 -400 144
WIRE -256 160 -256 96
WIRE -256 160 -400 160
WIRE -176 160 -176 144
WIRE -32 160 -176 160
WIRE -176 176 -176 160
WIRE -256 224 -256 160
WIRE -240 224 -256 224
WIRE -176 288 -176 272
WIRE -448 320 -656 320
WIRE -656 368 -656 320
FLAG 320 128 0
FLAG -576 144 0
FLAG -176 288 0
FLAG -400 336 0
FLAG -656 448 0
SYMBOL pmos 48 80 M270
SYMATTR InstName M1
SYMBOL res 304 32 R0
SYMATTR InstName Rload
SYMATTR Value 100
SYMBOL res -48 64 R0
SYMATTR InstName Rgate
SYMATTR Value 0
SYMBOL voltage -576 48 R0
WINDOW 123 0 0 Left 2
WINDOW 39 0 0 Left 2
SYMATTR InstName V1
SYMATTR Value 12
SYMBOL pnp -240 272 M180
SYMATTR InstName Q2
SYMBOL npn -240 48 R0
SYMATTR InstName Q1
SYMBOL res -416 48 R0
SYMATTR InstName R1
SYMATTR Value 10000
SYMBOL res -416 144 R0
SYMATTR InstName R2
SYMATTR Value 1
SYMBOL nmos -448 240 R0
SYMATTR InstName M2
SYMBOL voltage -656 352 R0
WINDOW 123 0 0 Left 2
WINDOW 39 0 0 Left 2
SYMATTR InstName V2
SYMATTR Value PULSE(0 3.3 0 0.0000001 0.0000001 0.000001 0 50000)
TEXT -640 536 Left 2 !.tran 2ms startup
